EPRI_Ckt7_DER_Project/electricdss-code-r4133-trunk-Distrib-EPRITestCircuits-ckt7/ckt7_Power_seq_MVA.txt

SYMMETRICAL COMPONENT POWERS BY CIRCUIT ELEMENT (first 3 phases)                                     Excess Power

Element                        Term    P1(MW)   Q1(Mvar)       P2         Q2      P0      Q0       P_Norm      Q_Norm     P_Emerg    Q_Emerg

"Vsource.SOURCE"                1      -76.5      -24.1        0.0        0.0     0.0     0.0
"Vsource.SOURCE"                2        0.0        0.0        0.0        0.0     0.0     0.0
"Transformer.SUB1"              1       25.5        8.0       -0.0       -0.0    -0.0    -0.0        0.0        0.0        0.0        0.0
"Transformer.SUB1"              2      -25.5       -7.9        0.0        0.0     0.0     0.0
"Transformer.SUB2"              1       25.5        8.0       -0.0       -0.0    -0.0    -0.0        0.0        0.0        0.0        0.0
"Transformer.SUB2"              2      -25.5       -7.9        0.0        0.0     0.0     0.0
"Transformer.SUB3"              1       25.5        8.0       -0.0       -0.0    -0.0    -0.0        0.0        0.0        0.0        0.0
"Transformer.SUB3"              2      -25.5       -7.9        0.0        0.0     0.0     0.0
"Line.326"                      1        0.0        0.0        0.0        0.0     0.0     0.0        0.0        0.0        0.0        0.0
"Line.326"                      2       -0.0       -0.0        0.0       -0.0    -0.0     0.0
"Line.333"                      1        5.5        0.4        0.0       -0.0    -0.0    -0.0        0.0        0.0        0.0        0.0
"Line.333"                      2       -5.5       -0.4       -0.0        0.0     0.0     0.0
"Line.335"                      1        0.0        0.0        0.0        0.0     0.0     0.0        0.0        0.0        0.0        0.0
"Line.335"                      2       -0.0       -0.0        0.0       -0.0    -0.0     0.0
"Line.150394"                   1       -0.0       -0.0        0.0       -0.0     0.0    -0.0        0.0        0.0        0.0        0.0
"Line.150394"                   2        0.0        0.0       -0.0        0.0     0.0     0.0
"Line.157109"                   1        5.4        0.4        0.0       -0.0    -0.0    -0.0        0.0        0.0        0.0        0.0
"Line.157109"                   2       -5.4       -0.4       -0.0        0.0     0.0     0.0
"Line.157115"                   1        5.4        0.3        0.0       -0.0    -0.0    -0.0        0.0        0.0        0.0        0.0
"Line.157115"                   2       -5.4       -0.3        0.0        0.0     0.0     0.0
"Line.157116"                   1        0.0        0.0       -0.0       -0.0     0.0    -0.0        0.0        0.0        0.0        0.0
"Line.157116"                   2       -0.0       -0.0        0.0        0.0    -0.0     0.0
"Line.157118"                   1        0.4        0.2        0.0        0.0    -0.0     0.0        0.0        0.0        0.0        0.0
"Line.157118"                   2       -0.4       -0.2       -0.0       -0.0     0.0    -0.0
"Line.157119"                   1        5.4        0.3       -0.0       -0.0    -0.0    -0.0        0.0        0.0        0.0        0.0
"Line.157119"                   2       -5.4       -0.3        0.0        0.0     0.0     0.0
"Line.157120"                   1        0.4        0.2        0.0        0.0    -0.0     0.0        0.0        0.0        0.0        0.0
"Line.157120"                   2       -0.4       -0.2       -0.0       -0.0     0.0    -0.0
"Line.157121"                   1       -0.1       -0.0        0.0       -0.0     0.0    -0.0        0.0        0.0        0.0        0.0
"Line.157121"                   2        0.1        0.0       -0.0        0.0    -0.0     0.0
"Line.157122"                   1        0.3        0.1        0.0        0.0    -0.0     0.0        0.0        0.0        0.0        0.0
"Line.157122"                   2       -0.3       -0.1       -0.0       -0.0     0.0    -0.0
"Line.157123"                   1        0.1        0.0       -0.0        0.0     0.0     0.0        0.0        0.0        0.0        0.0
"Line.157123"                   2       -0.1       -0.0        0.0       -0.0    -0.0    -0.0
"Line.157124"                   1       -0.3       -0.1        0.0       -0.0     0.0    -0.0        0.0        0.0        0.0        0.0
"Line.157124"                   2        0.3        0.1       -0.0        0.0    -0.0     0.0
"Line.157126"                   1        0.3        0.1       -0.0        0.0    -0.0     0.0        0.0        0.0        0.0        0.0
"Line.157126"                   2       -0.3       -0.1        0.0       -0.0     0.0    -0.0
"Line.157127"                   1        0.3        0.1       -0.0        0.0    -0.0     0.0        0.0        0.0        0.0        0.0
"Line.157127"                   2       -0.3       -0.1        0.0       -0.0     0.0    -0.0
"Line.157128"                   1        0.3        0.1       -0.0        0.0    -0.0     0.0        0.0        0.0        0.0        0.0
"Line.157128"                   2       -0.3       -0.1        0.0       -0.0     0.0    -0.0
"Line.157129"                   1        0.2        0.1       -0.0        0.0    -0.0     0.0        0.0        0.0        0.0        0.0
"Line.157129"                   2       -0.2       -0.1        0.0       -0.0     0.0    -0.0
"Line.157130"                   1       -0.1       -0.0       -0.0       -0.0    -0.0    -0.0        0.0        0.0        0.0        0.0
"Line.157130"                   2        0.1        0.0        0.0        0.0     0.0     0.0
"Line.157131"                   1        0.0        0.0        0.0        0.0     0.0     0.0        0.0        0.0        0.0        0.0
"Line.157131"                   2       -0.0       -0.0       -0.0       -0.0    -0.0    -0.0
"Line.157132"                   1        4.6       -0.0       -0.0       -0.0    -0.0    -0.0        1.5       -0.0        0.9       -0.0
"Line.157132"                   2       -4.6        0.0        0.0        0.0     0.0     0.0
"Line.157133"                   1        4.6       -0.0       -0.0       -0.0    -0.0    -0.0        0.0        0.0        0.0        0.0
"Line.157133"                   2       -4.6        0.0        0.0        0.0     0.0     0.0
"Line.157136"                   1        0.2        0.1       -0.0        0.0     0.0     0.0        0.0        0.0        0.0        0.0
"Line.157136"                   2       -0.2       -0.1        0.0       -0.0    -0.0    -0.0
"Line.157137"                   1       -0.2       -0.1        0.0       -0.0    -0.0    -0.0        0.0        0.0        0.0        0.0
"Line.157137"                   2        0.2        0.1       -0.0        0.0     0.0     0.0
"Line.157138"                   1       -0.2       -0.1        0.0       -0.0    -0.0    -0.0        0.0        0.0        0.0        0.0
"Line.157138"                   2        0.2        0.1       -0.0        0.0     0.0     0.0
"Line.157142"                   1        4.6       -0.0       -0.0       -0.0    -0.0    -0.0        0.0        0.0        0.0        0.0
"Line.157142"                   2       -4.6        0.0        0.0        0.0     0.0     0.0
"Line.157143"                   1        4.3       -0.2       -0.0       -0.0    -0.0    -0.0        0.0        0.0        0.0        0.0
"Line.157143"                   2       -4.3        0.2        0.0        0.0     0.0     0.0
"Line.157144"                   1        4.2       -0.2       -0.0       -0.0    -0.0    -0.0        0.0        0.0        0.0        0.0
"Line.157144"                   2       -4.2        0.2        0.0        0.0     0.0     0.0
"Line.157145"                   1        4.3       -0.2       -0.0       -0.0    -0.0    -0.0        0.0        0.0        0.0        0.0
"Line.157145"                   2       -4.3        0.2        0.0        0.0     0.0     0.0
"Line.157147"                   1       -0.0       -0.0       -0.0       -0.0    -0.0    -0.0        0.0        0.0        0.0        0.0
"Line.157147"                   2        0.0        0.0        0.0        0.0     0.0     0.0
"Line.157148"                   1       -0.1       -0.0       -0.0       -0.0     0.0    -0.0        0.0        0.0        0.0        0.0
"Line.157148"                   2        0.1        0.0        0.0        0.0    -0.0     0.0
"Line.157149"                   1       -0.1       -0.0       -0.0       -0.0    -0.0    -0.0        0.0        0.0        0.0        0.0
"Line.157149"                   2        0.1        0.0        0.0        0.0     0.0     0.0
"Line.157150"                   1        0.0        0.0       -0.0       -0.0     0.0    -0.0        0.0        0.0        0.0        0.0
"Line.157150"                   2       -0.0       -0.0        0.0        0.0    -0.0     0.0
"Line.157151"                   1        0.0        0.0       -0.0       -0.0     0.0    -0.0        0.0        0.0        0.0        0.0
"Line.157151"                   2       -0.0       -0.0        0.0        0.0    -0.0     0.0
"Line.157152"                   1        4.2       -0.3       -0.0       -0.0    -0.0    -0.0        0.0        0.0        0.0        0.0
"Line.157152"                   2       -4.2        0.3        0.0        0.0     0.0     0.0
"Line.157153"                   1        0.0        0.0        0.0        0.0     0.0     0.0        0.0        0.0        0.0        0.0
"Line.157153"                   2        0.0        0.0        0.0        0.0     0.0     0.0
"Line.157155"                   1        0.0        0.0        0.0        0.0     0.0     0.0        0.0        0.0        0.0        0.0
"Line.157155"                   2        0.0        0.0        0.0        0.0     0.0     0.0
"Line.157156"                   1        0.0        0.0        0.0        0.0     0.0     0.0        0.0        0.0        0.0        0.0
"Line.157156"                   2        0.0        0.0        0.0        0.0     0.0     0.0
"Line.157157"                   1        0.0        0.0        0.0        0.0     0.0     0.0        0.0        0.0        0.0        0.0
"Line.157157"                   2        0.0        0.0        0.0        0.0     0.0     0.0
"Line.157158"                   1        0.0        0.0        0.0        0.0     0.0     0.0        0.0        0.0        0.0        0.0
"Line.157158"                   2        0.0        0.0        0.0        0.0     0.0     0.0
"Line.157159"                   1        0.0        0.0        0.0        0.0     0.0     0.0        0.0        0.0        0.0        0.0
"Line.157159"                   2        0.0        0.0        0.0        0.0     0.0     0.0
"Line.157160"                   1        4.1       -0.3        0.0       -0.0    -0.0    -0.0        0.0        0.0        0.0        0.0
"Line.157160"                   2       -4.1        0.3       -0.0        0.0     0.0     0.0
"Line.157163"                   1        0.0        0.0        0.0        0.0    -0.0     0.0        0.0        0.0        0.0        0.0
"Line.157163"                   2       -0.0       -0.0       -0.0       -0.0     0.0    -0.0
"Line.157165"                   1        0.0        0.0        0.0        0.0    -0.0     0.0        0.0        0.0        0.0        0.0
"Line.157165"                   2       -0.0       -0.0       -0.0       -0.0     0.0    -0.0
"Line.157167"                   1        0.0        0.0        0.0        0.0    -0.0     0.0        0.0        0.0        0.0        0.0
"Line.157167"                   2       -0.0       -0.0       -0.0       -0.0     0.0    -0.0
"Line.157168"                   1        3.9       -0.4        0.0       -0.0    -0.0    -0.0        0.8       -0.1        0.2       -0.0
"Line.157168"                   2       -3.9        0.4        0.0        0.0     0.0     0.0
"Line.174945"                   1        0.0       -0.0       -0.0       -0.0     0.0    -0.0        0.0        0.0        0.0        0.0
"Line.174945"                   2       -0.0       -0.0        0.0        0.0    -0.0    -0.0
"Line.174947"                   1        0.1        0.0        0.0        0.0    -0.0     0.0        0.0        0.0        0.0        0.0
"Line.174947"                   2       -0.1       -0.0       -0.0       -0.0     0.0    -0.0
"Line.174948"                   1        0.3        0.2       -0.0        0.0     0.0     0.0        0.0        0.0        0.0        0.0
"Line.174948"                   2       -0.3       -0.2        0.0       -0.0    -0.0    -0.0
"Line.174950"                   1        0.5        0.2        0.0        0.0     0.0     0.0        0.0        0.0        0.0        0.0
"Line.174950"                   2       -0.5       -0.2       -0.0       -0.0    -0.0    -0.0
"Line.174951"                   1        0.1        0.0        0.0        0.0     0.0     0.0        0.0        0.0        0.0        0.0
"Line.174951"                   2       -0.1       -0.0       -0.0       -0.0    -0.0    -0.0
"Line.174952"                   1        0.4        0.2        0.0        0.0     0.0     0.0        0.0        0.0        0.0        0.0
"Line.174952"                   2       -0.4       -0.2       -0.0       -0.0    -0.0    -0.0
"Line.174953"                   1        0.4        0.2        0.0        0.0     0.0     0.0        0.0        0.0        0.0        0.0
"Line.174953"                   2       -0.4       -0.2       -0.0       -0.0    -0.0    -0.0
"Line.174954"                   1        0.4        0.2       -0.0        0.0     0.0     0.0        0.0        0.0        0.0        0.0
"Line.174954"                   2       -0.4       -0.2        0.0       -0.0    -0.0    -0.0
"Line.174955"                   1        0.3        0.2       -0.0        0.0     0.0     0.0        0.0        0.0        0.0        0.0
"Line.174955"                   2       -0.3       -0.2        0.0       -0.0    -0.0    -0.0
"Line.174956"                   1        0.1        0.0        0.0        0.0     0.0     0.0        0.0        0.0        0.0        0.0
"Line.174956"                   2       -0.1       -0.0       -0.0       -0.0    -0.0    -0.0
"Line.174957"                   1        0.1        0.0        0.0        0.0    -0.0     0.0        0.0        0.0        0.0        0.0
"Line.174957"                   2       -0.1       -0.0       -0.0       -0.0     0.0    -0.0
"Line.174958"                   1        0.0        0.0        0.0        0.0    -0.0     0.0        0.0        0.0        0.0        0.0
"Line.174958"                   2       -0.0       -0.0       -0.0       -0.0     0.0    -0.0
"Line.174959"                   1        0.0        0.0        0.0        0.0    -0.0     0.0        0.0        0.0        0.0        0.0
"Line.174959"                   2       -0.0       -0.0       -0.0       -0.0     0.0    -0.0
"Line.174960"                   1        0.0        0.0        0.0        0.0    -0.0     0.0        0.0        0.0        0.0        0.0
"Line.174960"                   2       -0.0       -0.0       -0.0       -0.0     0.0    -0.0
"Line.174961"                   1        0.0        0.0        0.0        0.0     0.0     0.0        0.0        0.0        0.0        0.0
"Line.174961"                   2        0.0        0.0        0.0        0.0     0.0     0.0
"Line.174962"                   1        0.0        0.0        0.0        0.0     0.0     0.0        0.0        0.0        0.0        0.0
"Line.174962"                   2        0.0        0.0        0.0        0.0     0.0     0.0
"Line.174963"                   1        0.0        0.0        0.0        0.0     0.0     0.0        0.0        0.0        0.0        0.0
"Line.174963"                   2        0.0        0.0        0.0        0.0     0.0     0.0
"Line.174964"                   1        0.0        0.0        0.0        0.0     0.0     0.0        0.0        0.0        0.0        0.0
"Line.174964"                   2        0.0        0.0        0.0        0.0     0.0     0.0
"Line.174965"                   1        0.0        0.0        0.0        0.0     0.0     0.0        0.0        0.0        0.0        0.0
"Line.174965"                   2        0.0        0.0        0.0        0.0     0.0     0.0
"Line.174966"                   1        0.0        0.0        0.0        0.0     0.0     0.0        0.0        0.0        0.0        0.0
"Line.174966"                   2        0.0        0.0        0.0        0.0     0.0     0.0
"Line.174967"                   1        0.0        0.0        0.0        0.0     0.0     0.0        0.0        0.0        0.0        0.0
"Line.174967"                   2        0.0        0.0        0.0        0.0     0.0     0.0
"Line.174968"                   1        0.0        0.0        0.0        0.0     0.0     0.0        0.0        0.0        0.0        0.0
"Line.174968"                   2        0.0        0.0        0.0        0.0     0.0     0.0
"Line.174969"                   1        0.0        0.0        0.0        0.0     0.0     0.0        0.0        0.0        0.0        0.0
"Line.174969"                   2        0.0        0.0        0.0        0.0     0.0     0.0
"Line.174970"                   1        0.0        0.0        0.0        0.0     0.0     0.0        0.0        0.0        0.0        0.0
"Line.174970"                   2        0.0        0.0        0.0        0.0     0.0     0.0
"Line.174971"                   1        0.0        0.0        0.0        0.0     0.0     0.0        0.0        0.0        0.0        0.0
"Line.174971"                   2        0.0        0.0        0.0        0.0     0.0     0.0
"Line.174972"                   1        0.0        0.0        0.0        0.0     0.0     0.0        0.0        0.0        0.0        0.0
"Line.174972"                   2        0.0        0.0        0.0        0.0     0.0     0.0
"Line.174973"                   1        0.0        0.0        0.0        0.0     0.0     0.0        0.0        0.0        0.0        0.0
"Line.174973"                   2        0.0        0.0        0.0        0.0     0.0     0.0
"Line.174974"                   1        0.0        0.0        0.0        0.0     0.0     0.0        0.0        0.0        0.0        0.0
"Line.174974"                   2        0.0        0.0        0.0        0.0     0.0     0.0
"Line.174975"                   1        0.0        0.0        0.0        0.0     0.0     0.0        0.0        0.0        0.0        0.0
"Line.174975"                   2        0.0        0.0        0.0        0.0     0.0     0.0
"Line.174976"                   1        0.0        0.0        0.0        0.0     0.0     0.0        0.0        0.0        0.0        0.0
"Line.174976"                   2        0.0        0.0        0.0        0.0     0.0     0.0
"Line.174977"                   1        0.0        0.0        0.0        0.0     0.0     0.0        0.0        0.0        0.0        0.0
"Line.174977"                   2        0.0        0.0        0.0        0.0     0.0     0.0
"Line.174978"                   1        0.0        0.0        0.0        0.0     0.0     0.0        0.0        0.0        0.0        0.0
"Line.174978"                   2        0.0        0.0        0.0        0.0     0.0     0.0
"Line.174979"                   1        0.0        0.0        0.0        0.0     0.0     0.0        0.0        0.0        0.0        0.0
"Line.174979"                   2        0.0        0.0        0.0        0.0     0.0     0.0
"Line.174980"                   1       -0.5       -0.3       -0.0       -0.0    -0.0    -0.0        0.0        0.0        0.0        0.0
"Line.174980"                   2        0.5        0.3        0.0        0.0     0.0     0.0
"Line.174981"                   1       -0.0       -0.0        0.0       -0.0     0.0    -0.0        0.0        0.0        0.0        0.0
"Line.174981"                   2        0.0        0.0       -0.0       -0.0     0.0    -0.0
"Line.174982"                   1       -0.5       -0.3       -0.0       -0.0    -0.0    -0.0        0.0        0.0        0.0        0.0
"Line.174982"                   2        0.5        0.3        0.0        0.0     0.0     0.0
"Line.174983"                   1       -2.2        0.1       -0.0       -0.0    -0.0    -0.0        0.0        0.0        0.0        0.0
"Line.174983"                   2        2.2       -0.1        0.0        0.0     0.0     0.0
"Line.174984"                   1        0.0       -0.0        0.0       -0.0     0.0    -0.0        0.0        0.0        0.0        0.0
"Line.174984"                   2        0.0        0.0        0.0        0.0    -0.0    -0.0
"Line.174987"                   1        1.6       -0.4        0.0        0.0    -0.0     0.0        0.0        0.0        0.0        0.0
"Line.174987"                   2       -1.6        0.4       -0.0       -0.0     0.0    -0.0
"Line.174988"                   1        0.6       -0.8        0.0        0.0    -0.0     0.0        0.0        0.0        0.0        0.0
"Line.174988"                   2       -0.6        0.8       -0.0       -0.0     0.0    -0.0
"Line.174989"                   1        0.1        0.1       -0.0        0.0     0.0    -0.0        0.0        0.0        0.0        0.0
"Line.174989"                   2       -0.1       -0.1        0.0       -0.0    -0.0     0.0
"Line.174990"                   1        1.1        0.5        0.0        0.0    -0.0     0.0        0.0        0.0        0.0        0.0
"Line.174990"                   2       -1.1       -0.5       -0.0       -0.0     0.0    -0.0
"Line.174991"                   1       -0.0       -0.0       -0.0       -0.0     0.0    -0.0        0.0        0.0        0.0        0.0
"Line.174991"                   2       -0.0        0.0        0.0        0.0    -0.0    -0.0
"Line.174994"                   1        0.0        0.0        0.0        0.0     0.0     0.0        0.0        0.0        0.0        0.0
"Line.174994"                   2        0.0        0.0        0.0        0.0     0.0     0.0
"Line.174995"                   1       -2.2        0.1       -0.0       -0.0    -0.0    -0.0        0.0        0.0        0.0        0.0
"Line.174995"                   2        2.2       -0.1        0.0        0.0     0.0     0.0
"Line.174998"                   1       -2.5       -0.0       -0.0       -0.0    -0.0    -0.0        0.0        0.0        0.0        0.0
"Line.174998"                   2        2.5        0.0        0.0        0.0     0.0     0.0
"Line.174999"                   1       -2.5       -0.0       -0.0       -0.0    -0.0    -0.0        0.0        0.0        0.0        0.0
"Line.174999"                   2        2.5        0.0        0.0        0.0     0.0     0.0
"Line.175000"                   1        0.0        0.0        0.0        0.0     0.0     0.0        0.0        0.0        0.0        0.0
"Line.175000"                   2        0.0        0.0        0.0        0.0     0.0     0.0
"Line.175001"                   1       -0.0       -0.0       -0.0       -0.0    -0.0    -0.0        0.0        0.0        0.0        0.0
"Line.175001"                   2        0.0        0.0        0.0        0.0     0.0     0.0
"Line.175002"                   1        0.1        0.1       -0.0        0.0     0.0    -0.0        0.0        0.0        0.0        0.0
"Line.175002"                   2       -0.1       -0.1        0.0       -0.0    -0.0     0.0
"Line.175003"                   1        0.1        0.0        0.0        0.0    -0.0     0.0        0.0        0.0        0.0        0.0
"Line.175003"                   2       -0.1       -0.0       -0.0       -0.0     0.0    -0.0
"Line.175004"                   1        0.0        0.0        0.0        0.0    -0.0     0.0        0.0        0.0        0.0        0.0
"Line.175004"                   2       -0.0       -0.0       -0.0       -0.0     0.0    -0.0
"Line.175005"                   1        0.0        0.0        0.0        0.0    -0.0     0.0        0.0        0.0        0.0        0.0
"Line.175005"                   2       -0.0       -0.0       -0.0       -0.0     0.0    -0.0
"Line.175006"                   1        0.0        0.0        0.0        0.0     0.0     0.0        0.0        0.0        0.0        0.0
"Line.175006"                   2        0.0        0.0        0.0        0.0     0.0     0.0
...
"Line.S_0862099-DA1"            1        0.0        0.0       -0.0        0.0    -0.0    -0.0        0.0        0.0        0.0        0.0
"Line.S_0862099-DA1"            2       -0.0       -0.0       -0.0       -0.0     0.0    -0.0
"Line.S_0862099-DA2"            1        0.0        0.0       -0.0        0.0    -0.0    -0.0        0.0        0.0        0.0        0.0
"Line.S_0862099-DA2"            2       -0.0       -0.0       -0.0       -0.0     0.0    -0.0
"Line.S_0862099-DA3"            1        0.0        0.0       -0.0        0.0    -0.0    -0.0        0.0        0.0        0.0        0.0
"Line.S_0862099-DA3"            2       -0.0       -0.0       -0.0       -0.0     0.0    -0.0
"Line.S_1000663-DA1"            1        0.0        0.0        0.0        0.0     0.0     0.0        0.0        0.0        0.0        0.0
"Line.S_1000663-DA1"            2        0.0        0.0        0.0        0.0     0.0     0.0
"Line.S_1000663-DB1"            1        0.0        0.0        0.0        0.0     0.0     0.0        0.0        0.0        0.0        0.0
"Line.S_1000663-DB1"            2        0.0        0.0        0.0        0.0     0.0     0.0
"Line.S_1000663-DC1"            1        0.0        0.0        0.0        0.0     0.0     0.0        0.0        0.0        0.0        0.0
"Line.S_1000663-DC1"            2        0.0        0.0        0.0        0.0     0.0     0.0
"Line.S_1000252-DB1"            1        0.0        0.0        0.0        0.0     0.0     0.0        0.0        0.0        0.0        0.0
"Line.S_1000252-DB1"            2        0.0        0.0        0.0        0.0     0.0     0.0
"Line.S_1001746-DA1"            1        0.0        0.0       -0.0        0.0    -0.0    -0.0        0.0        0.0        0.0        0.0
"Line.S_1001746-DA1"            2       -0.0       -0.0       -0.0       -0.0     0.0    -0.0
"Line.S_1001746-DA2"            1        0.0        0.0       -0.0        0.0    -0.0    -0.0        0.0        0.0        0.0        0.0
"Line.S_1001746-DA2"            2       -0.0       -0.0       -0.0       -0.0     0.0    -0.0
"Line.S_1001746-DA3"            1        0.0        0.0       -0.0        0.0    -0.0    -0.0        0.0        0.0        0.0        0.0
"Line.S_1001746-DA3"            2       -0.0       -0.0       -0.0       -0.0     0.0    -0.0
"Line.S_1000502-DB1"            1        0.0        0.0        0.0        0.0     0.0     0.0        0.0        0.0        0.0        0.0
"Line.S_1000502-DB1"            2        0.0        0.0        0.0        0.0     0.0     0.0
"Line.S_1000824-DA1"            1        0.0        0.0        0.0        0.0     0.0     0.0        0.0        0.0        0.0        0.0
"Line.S_1000824-DA1"            2        0.0        0.0        0.0        0.0     0.0     0.0
"Line.S_1000824-DA2"            1        0.0        0.0        0.0        0.0     0.0     0.0        0.0        0.0        0.0        0.0
"Line.S_1000824-DA2"            2        0.0        0.0        0.0        0.0     0.0     0.0
"Line.S_1000824-DA3"            1        0.0        0.0        0.0        0.0     0.0     0.0        0.0        0.0        0.0        0.0
"Line.S_1000824-DA3"            2        0.0        0.0        0.0        0.0     0.0     0.0
"Line.S_1000824-DB1"            1        0.0        0.0        0.0        0.0     0.0     0.0        0.0        0.0        0.0        0.0
"Line.S_1000824-DB1"            2        0.0        0.0        0.0        0.0     0.0     0.0
"Line.S_1000824-DB2"            1        0.0        0.0        0.0        0.0     0.0     0.0        0.0        0.0        0.0        0.0
"Line.S_1000824-DB2"            2        0.0        0.0        0.0        0.0     0.0     0.0
"Line.S_1000824-DB3"            1        0.0        0.0        0.0        0.0     0.0     0.0        0.0        0.0        0.0        0.0
"Line.S_1000824-DB3"            2        0.0        0.0        0.0        0.0     0.0     0.0
"Line.S_1000824-DC1"            1        0.0        0.0        0.0        0.0     0.0     0.0        0.0        0.0        0.0        0.0
"Line.S_1000824-DC1"            2        0.0        0.0        0.0        0.0     0.0     0.0
"Line.S_1000824-DC2"            1        0.0        0.0        0.0        0.0     0.0     0.0        0.0        0.0        0.0        0.0
"Line.S_1000824-DC2"            2        0.0        0.0        0.0        0.0     0.0     0.0
"Line.S_1000824-DC3"            1        0.0        0.0        0.0        0.0     0.0     0.0        0.0        0.0        0.0        0.0
"Line.S_1000824-DC3"            2        0.0        0.0        0.0        0.0     0.0     0.0
"Line.S_1001745-DA1"            1        0.0        0.0       -0.0        0.0    -0.0    -0.0        0.0        0.0        0.0        0.0
"Line.S_1001745-DA1"            2       -0.0       -0.0       -0.0       -0.0     0.0    -0.0
"Line.S_1001745-DA2"            1        0.0        0.0       -0.0        0.0    -0.0    -0.0        0.0        0.0        0.0        0.0
"Line.S_1001745-DA2"            2       -0.0       -0.0       -0.0       -0.0     0.0    -0.0
"Line.S_1001745-DA3"            1        0.0        0.0       -0.0        0.0    -0.0    -0.0        0.0        0.0        0.0        0.0
"Line.S_1001745-DA3"            2       -0.0       -0.0       -0.0       -0.0     0.0    -0.0
"Line.S_1001329-DA1"            1        0.0        0.0        0.0        0.0    -0.0    -0.0        0.0        0.0        0.0        0.0
"Line.S_1001329-DA1"            2       -0.0       -0.0       -0.0       -0.0     0.0    -0.0
"Line.S_1001329-DA2"            1        0.0        0.0        0.0        0.0    -0.0    -0.0        0.0        0.0        0.0        0.0
"Line.S_1001329-DA2"            2       -0.0       -0.0       -0.0       -0.0     0.0    -0.0
"Line.S_1001329-DA3"            1        0.0        0.0        0.0        0.0    -0.0    -0.0        0.0        0.0        0.0        0.0
"Line.S_1001329-DA3"            2       -0.0       -0.0       -0.0       -0.0     0.0    -0.0
"Line.S_1001359-DA1"            1        0.1        0.0       -0.0        0.0    -0.0    -0.0        0.0        0.0        0.0        0.0
"Line.S_1001359-DA1"            2       -0.1       -0.0       -0.0       -0.0     0.0    -0.0
"Line.S_1001359-DA2"            1        0.1        0.0       -0.0        0.0    -0.0    -0.0        0.0        0.0        0.0        0.0
"Line.S_1001359-DA2"            2       -0.1       -0.0       -0.0       -0.0     0.0    -0.0
"Line.S_1001359-DA3"            1        0.1        0.0       -0.0        0.0    -0.0    -0.0        0.0        0.0        0.0        0.0
"Line.S_1001359-DA3"            2       -0.1       -0.0       -0.0       -0.0     0.0    -0.0
"Line.S_1001330-DA1"            1        0.0        0.0        0.0        0.0    -0.0    -0.0        0.0        0.0        0.0        0.0
"Line.S_1001330-DA1"            2       -0.0       -0.0       -0.0       -0.0     0.0    -0.0
"Line.S_1001330-DA2"            1        0.0        0.0        0.0        0.0    -0.0    -0.0        0.0        0.0        0.0        0.0
"Line.S_1001330-DA2"            2       -0.0       -0.0       -0.0       -0.0     0.0    -0.0
"Line.S_1001330-DA3"            1        0.0        0.0        0.0        0.0    -0.0    -0.0        0.0        0.0        0.0        0.0
"Line.S_1001330-DA3"            2       -0.0       -0.0       -0.0       -0.0     0.0    -0.0
"Line.S_1001330-DA4"            1        0.0        0.0        0.0        0.0    -0.0    -0.0        0.0        0.0        0.0        0.0
"Line.S_1001330-DA4"            2       -0.0       -0.0       -0.0       -0.0     0.0    -0.0
"Line.S_1001330-DA5"            1        0.0        0.0        0.0        0.0    -0.0    -0.0        0.0        0.0        0.0        0.0
"Line.S_1001330-DA5"            2       -0.0       -0.0       -0.0       -0.0     0.0    -0.0
"Line.S_1001330-DA6"            1        0.0        0.0        0.0        0.0    -0.0    -0.0        0.0        0.0        0.0        0.0
"Line.S_1001330-DA6"            2       -0.0       -0.0       -0.0       -0.0     0.0    -0.0
"Line.S_1000672-DA1"            1        0.0        0.0        0.0        0.0     0.0     0.0        0.0        0.0        0.0        0.0
"Line.S_1000672-DA1"            2        0.0        0.0        0.0        0.0     0.0     0.0
"Line.S_1001708-DA1"            1        0.1        0.0       -0.0        0.0    -0.0    -0.0        0.0        0.0        0.0        0.0
"Line.S_1001708-DA1"            2       -0.1       -0.0       -0.0       -0.0     0.0    -0.0
"Line.S_1001708-DA2"            1        0.1        0.0       -0.0        0.0    -0.0    -0.0        0.0        0.0        0.0        0.0
"Line.S_1001708-DA2"            2       -0.1       -0.0       -0.0       -0.0     0.0    -0.0
"Line.S_1001708-DA3"            1        0.1        0.0       -0.0        0.0    -0.0    -0.0        0.0        0.0        0.0        0.0
"Line.S_1001708-DA3"            2       -0.1       -0.0       -0.0       -0.0     0.0    -0.0
"Line.S_1001345-DA1"            1        0.0        0.0        0.0        0.0    -0.0    -0.0        0.0        0.0        0.0        0.0
"Line.S_1001345-DA1"            2       -0.0       -0.0       -0.0       -0.0     0.0    -0.0
"Line.S_1001345-DA2"            1        0.0        0.0        0.0        0.0    -0.0    -0.0        0.0        0.0        0.0        0.0
"Line.S_1001345-DA2"            2       -0.0       -0.0       -0.0       -0.0     0.0    -0.0
"Line.S_1001345-DA3"            1        0.0        0.0        0.0        0.0    -0.0    -0.0        0.0        0.0        0.0        0.0
"Line.S_1001345-DA3"            2       -0.0       -0.0       -0.0       -0.0     0.0    -0.0
"Line.S_1000933-DA1"            1        0.0        0.0        0.0        0.0    -0.0    -0.0        0.0        0.0        0.0        0.0
"Line.S_1000933-DA1"            2       -0.0       -0.0       -0.0       -0.0     0.0     0.0
"Line.S_1000933-DA2"            1        0.0        0.0        0.0        0.0    -0.0    -0.0        0.0        0.0        0.0        0.0
"Line.S_1000933-DA2"            2       -0.0       -0.0       -0.0       -0.0     0.0     0.0
"Line.S_1000933-DA3"            1        0.0        0.0        0.0        0.0    -0.0    -0.0        0.0        0.0        0.0        0.0
"Line.S_1000933-DA3"            2       -0.0       -0.0       -0.0       -0.0     0.0     0.0
"Line.S_1000933-DA4"            1        0.0        0.0        0.0        0.0    -0.0    -0.0        0.0        0.0        0.0        0.0
"Line.S_1000933-DA4"            2       -0.0       -0.0       -0.0       -0.0     0.0     0.0
"Line.S_1000933-DA5"            1        0.0        0.0        0.0        0.0    -0.0    -0.0        0.0        0.0        0.0        0.0
"Line.S_1000933-DA5"            2       -0.0       -0.0       -0.0       -0.0     0.0     0.0
"Line.S_1000933-DA6"            1        0.0        0.0        0.0        0.0    -0.0    -0.0        0.0        0.0        0.0        0.0
"Line.S_1000933-DA6"            2       -0.0       -0.0       -0.0       -0.0     0.0     0.0
"Line.S_1000933-DA7"            1        0.0        0.0        0.0        0.0    -0.0    -0.0        0.0        0.0        0.0        0.0
"Line.S_1000933-DA7"            2       -0.0       -0.0       -0.0       -0.0     0.0     0.0
"Line.S_1000933-DA8"            1        0.0        0.0        0.0        0.0    -0.0    -0.0        0.0        0.0        0.0        0.0
"Line.S_1000933-DA8"            2       -0.0       -0.0       -0.0       -0.0     0.0     0.0
"Line.S_1000933-DA9"            1        0.0        0.0        0.0        0.0    -0.0    -0.0        0.0        0.0        0.0        0.0
"Line.S_1000933-DA9"            2       -0.0       -0.0       -0.0       -0.0     0.0     0.0
"Line.S_1000933-DA10"           1        0.0        0.0        0.0        0.0    -0.0    -0.0        0.0        0.0        0.0        0.0
"Line.S_1000933-DA10"           2       -0.0       -0.0       -0.0       -0.0     0.0     0.0
"Line.S_1000933-DA11"           1        0.0        0.0        0.0        0.0    -0.0    -0.0        0.0        0.0        0.0        0.0
"Line.S_1000933-DA11"           2       -0.0       -0.0       -0.0       -0.0     0.0     0.0
"Line.S_1000933-DA12"           1        0.0        0.0        0.0        0.0    -0.0    -0.0        0.0        0.0        0.0        0.0
"Line.S_1000933-DA12"           2       -0.0       -0.0       -0.0       -0.0     0.0     0.0
"Line.S_1000933-DA13"           1        0.0        0.0        0.0        0.0    -0.0    -0.0        0.0        0.0        0.0        0.0
"Line.S_1000933-DA13"           2       -0.0       -0.0       -0.0       -0.0     0.0     0.0
"Line.S_1000933-DA14"           1        0.0        0.0        0.0        0.0    -0.0    -0.0        0.0        0.0        0.0        0.0
"Line.S_1000933-DA14"           2       -0.0       -0.0       -0.0       -0.0     0.0     0.0
"Line.S_1000933-DA15"           1        0.0        0.0        0.0        0.0    -0.0    -0.0        0.0        0.0        0.0        0.0
"Line.S_1000933-DA15"           2       -0.0       -0.0       -0.0       -0.0     0.0     0.0
"Line.S_1001823-DA1"            1        0.0        0.0        0.0        0.0     0.0     0.0        0.0        0.0        0.0        0.0
"Line.S_1001823-DA1"            2        0.0        0.0        0.0        0.0     0.0     0.0
"Line.S_1001822-DA1"            1        0.0        0.0        0.0        0.0     0.0     0.0        0.0        0.0        0.0        0.0
"Line.S_1001822-DA1"            2        0.0        0.0        0.0        0.0     0.0     0.0
"Line.S_1001822-DB1"            1        0.0        0.0        0.0        0.0     0.0     0.0        0.0        0.0        0.0        0.0
"Line.S_1001822-DB1"            2        0.0        0.0        0.0        0.0     0.0     0.0
"Line.S_1001822-DC1"            1        0.0        0.0        0.0        0.0     0.0     0.0        0.0        0.0        0.0        0.0
"Line.S_1001822-DC1"            2        0.0        0.0        0.0        0.0     0.0     0.0
"Line.S_1000042-DA1"            1        0.0        0.0        0.0        0.0     0.0     0.0        0.0        0.0        0.0        0.0
"Line.S_1000042-DA1"            2        0.0        0.0        0.0        0.0     0.0     0.0
"Line.S_1000042-DA2"            1        0.0        0.0        0.0        0.0     0.0     0.0        0.0        0.0        0.0        0.0
"Line.S_1000042-DA2"            2        0.0        0.0        0.0        0.0     0.0     0.0
"Line.S_1000042-DA3"            1        0.0        0.0        0.0        0.0     0.0     0.0        0.0        0.0        0.0        0.0
"Line.S_1000042-DA3"            2        0.0        0.0        0.0        0.0     0.0     0.0
"Line.S_1000042-DA4"            1        0.0        0.0        0.0        0.0     0.0     0.0        0.0        0.0        0.0        0.0
"Line.S_1000042-DA4"            2        0.0        0.0        0.0        0.0     0.0     0.0
"Line.S_1000042-DA5"            1        0.0        0.0        0.0        0.0     0.0     0.0        0.0        0.0        0.0        0.0
"Line.S_1000042-DA5"            2        0.0        0.0        0.0        0.0     0.0     0.0
"Line.S_1000042-DA6"            1        0.0        0.0        0.0        0.0     0.0     0.0        0.0        0.0        0.0        0.0
"Line.S_1000042-DA6"            2        0.0        0.0        0.0        0.0     0.0     0.0
"Line.S_1000042-DA7"            1        0.0        0.0        0.0        0.0     0.0     0.0        0.0        0.0        0.0        0.0
"Line.S_1000042-DA7"            2        0.0        0.0        0.0        0.0     0.0     0.0
"Line.S_1000077-DA1"            1        0.0        0.0        0.0        0.0     0.0     0.0        0.0        0.0        0.0        0.0
"Line.S_1000077-DA1"            2        0.0        0.0        0.0        0.0     0.0     0.0
"Line.S_1000077-DA2"            1        0.0        0.0        0.0        0.0     0.0     0.0        0.0        0.0        0.0        0.0
"Line.S_1000077-DA2"            2        0.0        0.0        0.0        0.0     0.0     0.0
"Line.S_1000077-DA3"            1        0.0        0.0        0.0        0.0     0.0     0.0        0.0        0.0        0.0        0.0
"Line.S_1000077-DA3"            2        0.0        0.0        0.0        0.0     0.0     0.0
"Line.S_1000077-DA4"            1        0.0        0.0        0.0        0.0     0.0     0.0        0.0        0.0        0.0        0.0
"Line.S_1000077-DA4"            2        0.0        0.0        0.0        0.0     0.0     0.0
"Line.S_1000077-DA5"            1        0.0        0.0        0.0        0.0     0.0     0.0        0.0        0.0        0.0        0.0
"Line.S_1000077-DA5"            2        0.0        0.0        0.0        0.0     0.0     0.0
"Line.S_1000077-DA6"            1        0.0        0.0        0.0        0.0     0.0     0.0        0.0        0.0        0.0        0.0
"Line.S_1000077-DA6"            2        0.0        0.0        0.0        0.0     0.0     0.0
"Line.S_1000474-DA1"            1        0.0        0.0        0.0        0.0     0.0     0.0        0.0        0.0        0.0        0.0
"Line.S_1000474-DA1"            2        0.0        0.0        0.0        0.0     0.0     0.0
"Line.S_1000474-DA2"            1        0.0        0.0        0.0        0.0     0.0     0.0        0.0        0.0        0.0        0.0
"Line.S_1000474-DA2"            2        0.0        0.0        0.0        0.0     0.0     0.0
"Line.S_1000474-DA3"            1        0.0        0.0        0.0        0.0     0.0     0.0        0.0        0.0        0.0        0.0
"Line.S_1000474-DA3"            2        0.0        0.0        0.0        0.0     0.0     0.0
"Line.S_1000474-DA4"            1        0.0        0.0        0.0        0.0     0.0     0.0        0.0        0.0        0.0        0.0
"Line.S_1000474-DA4"            2        0.0        0.0        0.0        0.0     0.0     0.0
"Line.S_1000474-DA5"            1        0.0        0.0        0.0        0.0     0.0     0.0        0.0        0.0        0.0        0.0
"Line.S_1000474-DA5"            2        0.0        0.0        0.0        0.0     0.0     0.0
"Line.S_1000043-DA1"            1        0.0        0.0        0.0        0.0     0.0     0.0        0.0        0.0        0.0        0.0
"Line.S_1000043-DA1"            2        0.0        0.0        0.0        0.0     0.0     0.0
"Line.S_1000043-DA2"            1        0.0        0.0        0.0        0.0     0.0     0.0        0.0        0.0        0.0        0.0
"Line.S_1000043-DA2"            2        0.0        0.0        0.0        0.0     0.0     0.0
"Line.S_1000043-DA3"            1        0.0        0.0        0.0        0.0     0.0     0.0        0.0        0.0        0.0        0.0
"Line.S_1000043-DA3"            2        0.0        0.0        0.0        0.0     0.0     0.0
"Line.S_1000043-DA4"            1        0.0        0.0        0.0        0.0     0.0     0.0        0.0        0.0        0.0        0.0
"Line.S_1000043-DA4"            2        0.0        0.0        0.0        0.0     0.0     0.0
"Line.S_1000043-DA5"            1        0.0        0.0        0.0        0.0     0.0     0.0        0.0        0.0        0.0        0.0
"Line.S_1000043-DA5"            2        0.0        0.0        0.0        0.0     0.0     0.0
"Line.S_1000043-DA6"            1        0.0        0.0        0.0        0.0     0.0     0.0        0.0        0.0        0.0        0.0
"Line.S_1000043-DA6"            2        0.0        0.0        0.0        0.0     0.0     0.0
"Line.S_1001567-DA1"            1        0.0        0.0        0.0        0.0    -0.0    -0.0        0.0        0.0        0.0        0.0
"Line.S_1001567-DA1"            2       -0.0       -0.0       -0.0       -0.0     0.0    -0.0
"Line.S_1001567-DA2"            1        0.0        0.0        0.0        0.0    -0.0    -0.0        0.0        0.0        0.0        0.0
"Line.S_1001567-DA2"            2       -0.0       -0.0       -0.0       -0.0     0.0    -0.0
"Line.S_1001567-DA3"            1        0.0        0.0        0.0        0.0    -0.0    -0.0        0.0        0.0        0.0        0.0
"Line.S_1001567-DA3"            2       -0.0       -0.0       -0.0       -0.0     0.0    -0.0
"Line.S_1000233-DB1"            1        0.0        0.0        0.0        0.0     0.0     0.0        0.0        0.0        0.0        0.0
"Line.S_1000233-DB1"            2        0.0        0.0        0.0        0.0     0.0     0.0
"Line.S_1000569-DA1"            1        0.0        0.0        0.0        0.0    -0.0    -0.0        0.0        0.0        0.0        0.0
"Line.S_1000569-DA1"            2       -0.0       -0.0       -0.0       -0.0     0.0    -0.0
"Line.S_1000569-DA2"            1        0.0        0.0        0.0        0.0    -0.0    -0.0        0.0        0.0        0.0        0.0
"Line.S_1000569-DA2"            2       -0.0       -0.0       -0.0       -0.0     0.0    -0.0
"Line.S_1000569-DA3"            1        0.0        0.0        0.0        0.0    -0.0    -0.0        0.0        0.0        0.0        0.0
"Line.S_1000569-DA3"            2       -0.0       -0.0       -0.0       -0.0     0.0    -0.0
"Line.S_1000746-DA1"            1        0.0        0.0        0.0        0.0    -0.0    -0.0        0.0        0.0        0.0        0.0
"Line.S_1000746-DA1"            2       -0.0       -0.0       -0.0       -0.0     0.0    -0.0
"Line.S_1000746-DA2"            1        0.0        0.0        0.0        0.0    -0.0    -0.0        0.0        0.0        0.0        0.0
"Line.S_1000746-DA2"            2       -0.0       -0.0       -0.0       -0.0     0.0    -0.0
"Line.S_1000746-DA3"            1        0.0        0.0        0.0        0.0    -0.0    -0.0        0.0        0.0        0.0        0.0
"Line.S_1000746-DA3"            2       -0.0       -0.0       -0.0       -0.0     0.0    -0.0
"Line.S_1000608-DA1"            1        0.0        0.0        0.0        0.0     0.0     0.0        0.0        0.0        0.0        0.0
"Line.S_1000608-DA1"            2        0.0        0.0        0.0        0.0     0.0     0.0
"Line.S_1000608-DA2"            1        0.0        0.0        0.0        0.0     0.0     0.0        0.0        0.0        0.0        0.0
"Line.S_1000608-DA2"            2        0.0        0.0        0.0        0.0     0.0     0.0
"Line.S_1000608-DA3"            1        0.0        0.0        0.0        0.0     0.0     0.0        0.0        0.0        0.0        0.0
"Line.S_1000608-DA3"            2        0.0        0.0        0.0        0.0     0.0     0.0
"Line.S_1000608-DA4"            1        0.0        0.0        0.0        0.0     0.0     0.0        0.0        0.0        0.0        0.0
"Line.S_1000608-DA4"            2        0.0        0.0        0.0        0.0     0.0     0.0
"Line.S_1000608-DA5"            1        0.0        0.0        0.0        0.0     0.0     0.0        0.0        0.0        0.0        0.0
"Line.S_1000608-DA5"            2        0.0        0.0        0.0        0.0     0.0     0.0
"Line.S_1000608-DA6"            1        0.0        0.0        0.0        0.0     0.0     0.0        0.0        0.0        0.0        0.0
"Line.S_1000608-DA6"            2        0.0        0.0        0.0        0.0     0.0     0.0
"Line.S_1000608-DA7"            1        0.0        0.0        0.0        0.0     0.0     0.0        0.0        0.0        0.0        0.0
"Line.S_1000608-DA7"            2        0.0        0.0        0.0        0.0     0.0     0.0
"Line.S_1000608-DA8"            1        0.0        0.0        0.0        0.0     0.0     0.0        0.0        0.0        0.0        0.0
"Line.S_1000608-DA8"            2        0.0        0.0        0.0        0.0     0.0     0.0
"Line.S_1000609-DA1"            1        0.0        0.0        0.0        0.0     0.0     0.0        0.0        0.0        0.0        0.0
"Line.S_1000609-DA1"            2        0.0        0.0        0.0        0.0     0.0     0.0
"Line.S_1000609-DA2"            1        0.0        0.0        0.0        0.0     0.0     0.0        0.0        0.0        0.0        0.0
"Line.S_1000609-DA2"            2        0.0        0.0        0.0        0.0     0.0     0.0
"Line.S_1000609-DA3"            1        0.0        0.0        0.0        0.0     0.0     0.0        0.0        0.0        0.0        0.0
"Line.S_1000609-DA3"            2        0.0        0.0        0.0        0.0     0.0     0.0
"Line.S_1000609-DA4"            1        0.0        0.0        0.0        0.0     0.0     0.0        0.0        0.0        0.0        0.0
"Line.S_1000609-DA4"            2        0.0        0.0        0.0        0.0     0.0     0.0
"Line.S_1000609-DA5"            1        0.0        0.0        0.0        0.0     0.0     0.0        0.0        0.0        0.0        0.0
"Line.S_1000609-DA5"            2        0.0        0.0        0.0        0.0     0.0     0.0
"Line.S_1000609-DA6"            1        0.0        0.0        0.0        0.0     0.0     0.0        0.0        0.0        0.0        0.0
"Line.S_1000609-DA6"            2        0.0        0.0        0.0        0.0     0.0     0.0
"Line.S_1000609-DA7"            1        0.0        0.0        0.0        0.0     0.0     0.0        0.0        0.0        0.0        0.0
"Line.S_1000609-DA7"            2        0.0        0.0        0.0        0.0     0.0     0.0
"Line.S_1000609-DA8"            1        0.0        0.0        0.0        0.0     0.0     0.0        0.0        0.0        0.0        0.0
"Line.S_1000609-DA8"            2        0.0        0.0        0.0        0.0     0.0     0.0
"Line.S_1000609-DA9"            1        0.0        0.0        0.0        0.0     0.0     0.0        0.0        0.0        0.0        0.0
"Line.S_1000609-DA9"            2        0.0        0.0        0.0        0.0     0.0     0.0
"Line.S_1000609-DA10"           1        0.0        0.0        0.0        0.0     0.0     0.0        0.0        0.0        0.0        0.0
"Line.S_1000609-DA10"           2        0.0        0.0        0.0        0.0     0.0     0.0
"Line.S_1000609-DA11"           1        0.0        0.0        0.0        0.0     0.0     0.0        0.0        0.0        0.0        0.0
"Line.S_1000609-DA11"           2        0.0        0.0        0.0        0.0     0.0     0.0
"Line.S_1000610-DA1"            1        0.0        0.0        0.0        0.0     0.0     0.0        0.0        0.0        0.0        0.0
"Line.S_1000610-DA1"            2        0.0        0.0        0.0        0.0     0.0     0.0
"Line.S_1000610-DA2"            1        0.0        0.0        0.0        0.0     0.0     0.0        0.0        0.0        0.0        0.0
"Line.S_1000610-DA2"            2        0.0        0.0        0.0        0.0     0.0     0.0
"Line.S_1000610-DA3"            1        0.0        0.0        0.0        0.0     0.0     0.0        0.0        0.0        0.0        0.0
"Line.S_1000610-DA3"            2        0.0        0.0        0.0        0.0     0.0     0.0
"Line.S_1000610-DA4"            1        0.0        0.0        0.0        0.0     0.0     0.0        0.0        0.0        0.0        0.0
"Line.S_1000610-DA4"            2        0.0        0.0        0.0        0.0     0.0     0.0
"Line.S_1000610-DA5"            1        0.0        0.0        0.0        0.0     0.0     0.0        0.0        0.0        0.0        0.0
"Line.S_1000610-DA5"            2        0.0        0.0        0.0        0.0     0.0     0.0
"Line.S_1000610-DA6"            1        0.0        0.0        0.0        0.0     0.0     0.0        0.0        0.0        0.0        0.0
"Line.S_1000610-DA6"            2        0.0        0.0        0.0        0.0     0.0     0.0
"Line.S_1000610-DA7"            1        0.0        0.0        0.0        0.0     0.0     0.0        0.0        0.0        0.0        0.0
"Line.S_1000610-DA7"            2        0.0        0.0        0.0        0.0     0.0     0.0
"Line.S_1000610-DA8"            1        0.0        0.0        0.0        0.0     0.0     0.0        0.0        0.0        0.0        0.0
"Line.S_1000610-DA8"            2        0.0        0.0        0.0        0.0     0.0     0.0
"Line.S_1000610-DA9"            1        0.0        0.0        0.0        0.0     0.0     0.0        0.0        0.0        0.0        0.0
"Line.S_1000610-DA9"            2        0.0        0.0        0.0        0.0     0.0     0.0
"Line.S_1000610-DA10"           1        0.0        0.0        0.0        0.0     0.0     0.0        0.0        0.0        0.0        0.0
"Line.S_1000610-DA10"           2        0.0        0.0        0.0        0.0     0.0     0.0
"Line.S_1000610-DA11"           1        0.0        0.0        0.0        0.0     0.0     0.0        0.0        0.0        0.0        0.0
"Line.S_1000610-DA11"           2        0.0        0.0        0.0        0.0     0.0     0.0
"Line.S_1000611-DA1"            1        0.0        0.0        0.0        0.0     0.0     0.0        0.0        0.0        0.0        0.0
"Line.S_1000611-DA1"            2        0.0        0.0        0.0        0.0     0.0     0.0
"Line.S_1000611-DA2"            1        0.0        0.0        0.0        0.0     0.0     0.0        0.0        0.0        0.0        0.0
"Line.S_1000611-DA2"            2        0.0        0.0        0.0        0.0     0.0     0.0
"Line.S_1000611-DA3"            1        0.0        0.0        0.0        0.0     0.0     0.0        0.0        0.0        0.0        0.0
"Line.S_1000611-DA3"            2        0.0        0.0        0.0        0.0     0.0     0.0
"Line.S_1000611-DA4"            1        0.0        0.0        0.0        0.0     0.0     0.0        0.0        0.0        0.0        0.0
"Line.S_1000611-DA4"            2        0.0        0.0        0.0        0.0     0.0     0.0
"Line.S_1000611-DA5"            1        0.0        0.0        0.0        0.0     0.0     0.0        0.0        0.0        0.0        0.0
"Line.S_1000611-DA5"            2        0.0        0.0        0.0        0.0     0.0     0.0
"Line.S_1000612-DA1"            1        0.0        0.0        0.0        0.0     0.0     0.0        0.0        0.0        0.0        0.0
"Line.S_1000612-DA1"            2        0.0        0.0        0.0        0.0     0.0     0.0
"Line.S_1000612-DA2"            1        0.0        0.0        0.0        0.0     0.0     0.0        0.0        0.0        0.0        0.0
"Line.S_1000612-DA2"            2        0.0        0.0        0.0        0.0     0.0     0.0
"Line.S_1000612-DA3"            1        0.0        0.0        0.0        0.0     0.0     0.0        0.0        0.0        0.0        0.0
"Line.S_1000612-DA3"            2        0.0        0.0        0.0        0.0     0.0     0.0
"Line.S_1000612-DA4"            1        0.0        0.0        0.0        0.0     0.0     0.0        0.0        0.0        0.0        0.0
"Line.S_1000612-DA4"            2        0.0        0.0        0.0        0.0     0.0     0.0
"Line.S_1000612-DA5"            1        0.0        0.0        0.0        0.0     0.0     0.0        0.0        0.0        0.0        0.0
"Line.S_1000612-DA5"            2        0.0        0.0        0.0        0.0     0.0     0.0
"Line.S_1000612-DA6"            1        0.0        0.0        0.0        0.0     0.0     0.0        0.0        0.0        0.0        0.0
"Line.S_1000612-DA6"            2        0.0        0.0        0.0        0.0     0.0     0.0
"Line.S_1000612-DA7"            1        0.0        0.0        0.0        0.0     0.0     0.0        0.0        0.0        0.0        0.0
"Line.S_1000612-DA7"            2        0.0        0.0        0.0        0.0     0.0     0.0
"Line.S_1000612-DA8"            1        0.0        0.0        0.0        0.0     0.0     0.0        0.0        0.0        0.0        0.0
"Line.S_1000612-DA8"            2        0.0        0.0        0.0        0.0     0.0     0.0
"Line.S_1000598-DC1"            1        0.0        0.0        0.0        0.0     0.0     0.0        0.0        0.0        0.0        0.0
"Line.S_1000598-DC1"            2        0.0        0.0        0.0        0.0     0.0     0.0
"Line.S_1000598-DC2"            1        0.0        0.0        0.0        0.0     0.0     0.0        0.0        0.0        0.0        0.0
"Line.S_1000598-DC2"            2        0.0        0.0        0.0        0.0     0.0     0.0
"Line.S_1000598-DC3"            1        0.0        0.0        0.0        0.0     0.0     0.0        0.0        0.0        0.0        0.0
"Line.S_1000598-DC3"            2        0.0        0.0        0.0        0.0     0.0     0.0
"Line.S_1000598-DC4"            1        0.0        0.0        0.0        0.0     0.0     0.0        0.0        0.0        0.0        0.0
"Line.S_1000598-DC4"            2        0.0        0.0        0.0        0.0     0.0     0.0
"Line.S_1000598-DC5"            1        0.0        0.0        0.0        0.0     0.0     0.0        0.0        0.0        0.0        0.0
"Line.S_1000598-DC5"            2        0.0        0.0        0.0        0.0     0.0     0.0
"Line.S_1000598-DC6"            1        0.0        0.0        0.0        0.0     0.0     0.0        0.0        0.0        0.0        0.0
"Line.S_1000598-DC6"            2        0.0        0.0        0.0        0.0     0.0     0.0
"Line.S_1000598-DC7"            1        0.0        0.0        0.0        0.0     0.0     0.0        0.0        0.0        0.0        0.0
"Line.S_1000598-DC7"            2        0.0        0.0        0.0        0.0     0.0     0.0
"Line.S_1000598-DC8"            1        0.0        0.0        0.0        0.0     0.0     0.0        0.0        0.0        0.0        0.0
"Line.S_1000598-DC8"            2        0.0        0.0        0.0        0.0     0.0     0.0
"Line.S_1000598-DC9"            1        0.0        0.0        0.0        0.0     0.0     0.0        0.0        0.0        0.0        0.0
"Line.S_1000598-DC9"            2        0.0        0.0        0.0        0.0     0.0     0.0
"Line.S_1000599-DC1"            1        0.0        0.0        0.0        0.0     0.0     0.0        0.0        0.0        0.0        0.0
"Line.S_1000599-DC1"            2        0.0        0.0        0.0        0.0     0.0     0.0
"Line.S_1000599-DC2"            1        0.0        0.0        0.0        0.0     0.0     0.0        0.0        0.0        0.0        0.0
"Line.S_1000599-DC2"            2        0.0        0.0        0.0        0.0     0.0     0.0
"Line.S_1000599-DC3"            1        0.0        0.0        0.0        0.0     0.0     0.0        0.0        0.0        0.0        0.0
"Line.S_1000599-DC3"            2        0.0        0.0        0.0        0.0     0.0     0.0
"Line.S_1000599-DC4"            1        0.0        0.0        0.0        0.0     0.0     0.0        0.0        0.0        0.0        0.0
"Line.S_1000599-DC4"            2        0.0        0.0        0.0        0.0     0.0     0.0
"Line.S_1000599-DC5"            1        0.0        0.0        0.0        0.0     0.0     0.0        0.0        0.0        0.0        0.0
"Line.S_1000599-DC5"            2        0.0        0.0        0.0        0.0     0.0     0.0
"Line.S_1000599-DC6"            1        0.0        0.0        0.0        0.0     0.0     0.0        0.0        0.0        0.0        0.0
"Line.S_1000599-DC6"            2        0.0        0.0        0.0        0.0     0.0     0.0
"Line.S_1000599-DC7"            1        0.0        0.0        0.0        0.0     0.0     0.0        0.0        0.0        0.0        0.0
...